13

C -1.069450 -1.455355 0.449935
C -0.767816 0.055883 0.402725
C 0.719160 0.201943 0.130059
O 1.561809 0.334797 0.974696
O 1.014650 0.102163 -1.170689
N -1.534667 0.791629 -0.583289
H -0.864110 -1.907683 -0.518918
H -0.454716 -1.940252 1.203729
H -2.117061 -1.614081 0.698020
H -0.967011 0.493251 1.387413
H 1.972016 0.188293 -1.301999
H -1.290165 0.482258 -1.517881
H -2.526222 0.631498 -0.444202
