26

C -0.523707 2.142815 -0.129587
C -1.749929 1.254854 -0.311981
C -1.341233 -0.188401 -0.657151
C -0.387795 -0.721173 0.442381
O 0.008330 -2.019623 0.245597
O -1.041755 -0.679966 1.669733
N -2.455227 -1.106082 -0.782484
C 0.396789 1.522826 0.922436
N 0.792480 0.182983 0.514052
C 1.785408 0.026490 -0.424970
N 2.828361 0.935722 -0.354122
N 1.727269 -0.909263 -1.294162
H 0.019105 2.223193 -1.074568
H -0.822941 3.143918 0.185232
H -2.389380 1.647474 -1.106945
H -2.324530 1.233853 0.617366
H -0.783130 -0.203697 -1.601234
H -0.718016 -1.438348 2.172098
H -2.861455 -1.268537 0.132893
H -3.169173 -0.709597 -1.383778
H 1.274259 2.147999 1.081653
H -0.139060 1.419803 1.868541
H 3.651237 0.665610 -0.871386
H 3.032120 1.339506 0.545409
H 2.549130 -0.980785 -1.883002
H 0.578530 -2.019843 -0.556555
