25

C 17.213002 6.152232 -5.836669
C -3.716004 1.024159 0.021951
C -0.398282 3.369060 -1.073109
O 0.298291 -6.226847 1.722209
O 3.097371 3.169923 -0.743801
N -5.137460 -10.031467 10.247082
H -13.708704 -2.602232 2.846742
H -0.536950 -1.243401 2.464478
H -0.965678 -0.701890 0.649248
H 0.461094 0.523916 -0.793774
H -1.870232 -1.396800 0.044769
H 1.750643 6.943456 -8.931969
H 3.511667 1.004778 -0.614227
C 3.093093 -1.375123 3.582429
C -0.223133 2.775884 5.637751
C 2.013550 -1.639189 2.178226
O -3.023858 1.729242 -3.353037
O -2.575022 -0.415418 0.516706
N 1.582205 0.624130 -3.875201
H -0.214549 0.162919 -0.561839
H -1.489351 -0.703235 -2.705520
H -0.941903 -1.763535 -2.921850
H 2.707708 0.212336 0.021275
H 1.150815 0.239283 1.063059
H -2.078315 0.167819 0.415071
38

C 0.210477 0.473729 0.067082
C -0.045007 0.086694 -0.030290
C 0.030145 0.030757 -0.016851
O -0.029094 -0.033051 -0.005826
O -0.013605 -0.017832 0.015620
N 0.000774 0.021931 0.010898
H 0.199626 0.740560 0.002486
H -0.043512 0.158035 -0.027260
H -0.022535 0.035170 -0.005068
H 0.000275 -0.002120 -0.002645
H 0.004738 0.007585 0.001227
H 0.001622 0.004413 0.003835
H -0.001208 0.006392 -0.006397
C -0.848313 -1.162315 0.536441
C 1.525296 0.879146 -1.864567
C -0.778362 -0.130005 1.124523
C 0.082116 -0.021134 0.083881
O 0.010227 0.006749 -0.030249
O 0.006224 0.009978 -0.086121
N 0.118783 0.050899 -0.222543
C 0.111677 -0.082020 0.035685
N -0.090794 0.018820 -0.037696
C 0.155618 0.053166 0.047079
N -0.016549 -0.033328 -0.016638
N -0.101209 -0.048604 -0.043455
H 0.005533 -0.114715 -0.144587
H -0.181061 -0.771357 -0.010007
H -0.354287 -0.285778 0.590252
H -0.015441 0.082281 -0.078879
H -0.000688 0.023081 0.043244
H -0.021099 -0.009119 0.044447
H 0.006549 -0.033354 0.001515
H 0.050628 0.009247 0.010730
H -0.005447 0.024588 -0.034903
H -0.001929 0.007663 0.002428
H -0.000371 -0.000296 0.009288
H 0.043178 0.016705 0.023527
H 0.007026 -0.002559 0.009793
51

C 0.037297 0.001397 -0.019483
C 0.044037 -0.033714 -0.040867
C 0.004164 0.011838 0.002849
C 0.048651 0.036161 -0.069180
O -0.009716 -0.020867 0.018946
O -0.035148 0.003255 0.065755
N -0.016195 -0.016446 0.000512
C 0.005549 0.051921 -0.034936
N -0.015033 -0.050616 0.026575
C 0.020610 0.038411 0.002898
N -0.010147 -0.040104 0.018133
N -0.006504 -0.026508 -0.000739
H 0.000202 -0.012562 0.014724
H 0.211203 -0.169944 -0.087558
H -0.002501 0.007265 0.030861
H -0.012657 -0.054827 -0.029491
H -0.002612 -0.000846 0.009814
H 0.011230 -0.004816 -0.017512
H -0.002983 0.001067 -0.003339
H 0.005053 0.001914 -0.001868
H -0.031135 0.015182 -0.005938
H 0.002456 -0.014039 0.015082
H -0.005184 0.006228 -0.005105
H -0.009656 0.017082 -0.010464
H -0.002833 0.003600 -0.000153
H 0.005573 0.011072 -0.005812
C 1.404771 1.344266 1.581280
C -0.992571 -0.824976 -0.310863
C 0.309795 0.097595 0.273304
C -0.203861 -0.022793 0.051699
O 0.095251 -0.045054 0.004009
O 0.040947 -0.026349 -0.075332
N -0.132250 0.067773 0.040551
C -0.551779 -0.300013 -0.913397
N 0.224495 0.059359 -0.143853
C -0.026883 -0.277783 0.027210
N 0.024509 0.154006 0.036756
N 0.075861 0.046544 -0.030332
H -0.525437 -0.175030 -0.381208
H -0.007413 0.053664 0.032357
H -0.002221 0.073182 -0.026958
H 0.021321 0.014819 -0.022533
H 0.003648 -0.003963 0.035809
H 0.036235 0.018561 -0.059076
H -0.017990 -0.023471 0.022439
H -0.011836 0.002334 0.017989
H 0.012177 0.008149 0.011155
H 0.009228 -0.016005 -0.016421
H 0.015161 -0.004516 -0.042335
H -0.021401 0.011738 0.017161
H -0.013478 0.006854 -0.003117
