 xtb: 6.6.0 (8843059)
          07302512343D

 26 26  0     0  0            999 V2000
   -0.9688    2.2255   -0.3571 C   0  0  0  0  0  0  0  0  0  0  0  0
   -2.0015    1.2822    0.2339 C   0  0  0  0  0  0  0  0  0  0  0  0
   -1.7858   -0.0876   -0.3901 C   0  0  0  0  0  0  0  0  0  0  0  0
   -0.3700   -0.6361   -0.0686 C   0  0  0  0  0  0  0  0  0  0  0  0
   -0.1457   -1.6422   -0.9849 O   0  0  0  0  0  0  0  0  0  0  0  0
   -0.3795   -1.1252    1.2420 O   0  0  0  0  0  0  0  0  0  0  0  0
   -2.8189   -1.0109    0.0244 N   0  0  0  0  0  0  0  0  0  0  0  0
    0.4325    1.7915    0.0532 C   0  0  0  0  0  0  0  0  0  0  0  0
    0.6994    0.3808   -0.1880 N   0  0  0  0  0  0  0  0  0  0  0  0
    1.9694   -0.0895    0.0366 C   0  0  0  0  0  0  0  0  0  0  0  0
    2.9961    0.8266    0.0906 N   0  0  0  0  0  0  0  0  0  0  0  0
    2.1688   -1.3572    0.1218 N   0  0  0  0  0  0  0  0  0  0  0  0
   -1.0536    2.2157   -1.4449 H   0  0  0  0  0  0  0  0  0  0  0  0
   -1.1236    3.2482   -0.0093 H   0  0  0  0  0  0  0  0  0  0  0  0
   -3.0155    1.6131    0.0129 H   0  0  0  0  0  0  0  0  0  0  0  0
   -1.8851    1.2107    1.3166 H   0  0  0  0  0  0  0  0  0  0  0  0
   -1.8354   -0.0042   -1.4814 H   0  0  0  0  0  0  0  0  0  0  0  0
    0.4480   -1.6186    1.3562 H   0  0  0  0  0  0  0  0  0  0  0  0
   -2.6702   -1.9006   -0.4411 H   0  0  0  0  0  0  0  0  0  0  0  0
   -2.7273   -1.1783    1.0224 H   0  0  0  0  0  0  0  0  0  0  0  0
    1.1522    2.3752   -0.5296 H   0  0  0  0  0  0  0  0  0  0  0  0
    0.5674    2.0164    1.1237 H   0  0  0  0  0  0  0  0  0  0  0  0
    3.8920    0.4492    0.3547 H   0  0  0  0  0  0  0  0  0  0  0  0
    2.8258    1.7654    0.4029 H   0  0  0  0  0  0  0  0  0  0  0  0
    3.1428   -1.6133    0.2329 H   0  0  0  0  0  0  0  0  0  0  0  0
    0.7622   -1.9752   -0.8113 H   0  0  0  0  0  0  0  0  0  0  0  0
  1  2  1  0  0  0  0
  2  3  1  0  0  0  0
  3  4  1  0  0  0  0
  4  5  1  0  0  0  0
  4  6  1  0  0  0  0
  3  7  1  0  0  0  0
  1  8  1  0  0  0  0
  4  9  1  0  0  0  0
  8  9  1  0  0  0  0
  9 10  1  0  0  0  0
 10 11  1  0  0  0  0
 10 12  2  0  0  0  0
  1 13  1  0  0  0  0
  1 14  1  0  0  0  0
  2 15  1  0  0  0  0
  2 16  1  0  0  0  0
  3 17  1  0  0  0  0
  6 18  1  0  0  0  0
  7 19  1  0  0  0  0
  7 20  1  0  0  0  0
  8 21  1  0  0  0  0
  8 22  1  0  0  0  0
 11 23  1  0  0  0  0
 11 24  1  0  0  0  0
 12 25  1  0  0  0  0
  5 26  1  0  0  0  0
M  END
