13

C 0.000203 0.000481 -0.000402
C 0.000326 -0.000608 0.000499
C 0.000667 -0.001420 0.000123
O -0.000235 0.000486 0.000161
O -0.000687 0.001806 -0.000486
N -0.000958 -0.001638 -0.000077
H -0.000044 -0.000045 0.000134
H -0.000085 0.000012 0.000098
H -0.000123 -0.000204 -0.000338
H 0.000009 0.000452 0.000259
H 0.000106 -0.000777 0.000078
H 0.000622 0.001094 0.001304
H 0.000199 0.000362 -0.001352
13

C 0.188402 -0.799110 1.437913
C -4.614709 -0.137563 2.009832
C 3.446930 0.756390 -2.969266
O -0.299700 -1.588012 1.979541
O 1.864800 1.488543 -1.579764
N -0.048913 0.751889 -1.562598
H -0.528257 0.790269 -0.625800
H 0.804571 0.825159 -0.434904
H 0.332123 -0.462352 0.160018
H 0.255218 -0.165966 -1.000660
H -1.543778 -0.501892 1.252218
H 0.190222 -0.075937 0.515733
H -0.046909 -0.881419 0.817739
13

C 0.000245 0.000216 0.000431
C -0.000062 -0.000170 -0.000493
C -0.000220 0.001256 -0.000133
O 0.000489 -0.000654 0.000220
O -0.000204 -0.000281 -0.000051
N -0.000025 -0.000046 0.000036
H -0.000466 -0.000186 0.000126
H 0.000001 0.000253 -0.000204
H 0.000187 -0.000186 -0.000031
H -0.000030 -0.000152 0.000063
H 0.000158 -0.000158 0.000044
H -0.000002 0.000050 0.000115
H -0.000070 0.000059 -0.000123
13

C -1.569623 -3.878123 8.448021
C 0.373352 0.795483 0.687091
C 1.024057 -0.550027 -0.879798
O -1.784443 1.864929 -0.786878
O 3.624251 -0.459447 1.472966
N -2.147301 -3.065503 -7.448073
H 1.155522 0.388703 -0.754196
H 0.801418 1.983365 -5.680079
H -0.624827 1.366993 -1.009875
H -0.105681 -0.847760 -0.180740
H -2.591085 -0.512933 -0.310494
H 2.018748 3.781344 3.333844
H -0.174387 -0.867025 3.108210
13

C -0.000005 0.000192 -0.000042
C 0.000079 -0.000036 0.000053
C 0.000023 0.000078 -0.000246
O -0.000011 -0.000077 0.000113
O 0.000055 -0.000078 0.000184
N -0.000017 -0.000184 0.000020
H -0.000082 0.000031 -0.000005
H 0.000038 -0.000048 -0.000053
H -0.000020 -0.000035 0.000098
H 0.000060 -0.000040 0.000023
H -0.000017 0.000100 -0.000106
H -0.000095 -0.000020 0.000044
H -0.000005 0.000116 -0.000083
13

C 0.636955 5.574700 -2.542055
C -2.296333 2.265139 -6.184481
C 0.757572 3.437014 -0.701224
O -1.349851 -4.465848 1.575759
O -2.506428 -0.390798 0.288971
N 2.986000 -1.683416 2.460945
H 0.243613 -0.460939 0.251573
H -0.962064 -1.067912 2.617963
H 1.305025 -3.200716 0.476942
H -0.102737 -0.971528 3.422163
H 2.541211 0.795481 -0.527181
H 0.641269 0.802752 -0.949322
H -1.894232 -0.633930 -0.190053
13

C 2.317580 4.883779 -4.197802
C -0.707333 -2.491363 0.230775
C -0.503399 3.396697 -0.491244
O -1.735802 -4.525262 1.402024
O 4.031011 1.580631 -0.645056
N -0.129695 0.073831 2.527028
H -2.321116 -0.569689 0.843397
H -0.320899 -1.482746 2.824370
H 1.517687 -2.095239 0.161373
H 0.222141 1.354858 -1.047473
H -2.463524 -1.271601 0.284986
H 0.248652 1.144152 -1.679099
H -0.155304 0.001951 -0.213279
13

C 17.211491 6.149402 -5.840860
C -3.727609 1.032587 0.023051
C -0.378130 3.372296 -1.079286
O 0.291545 -6.233822 1.724745
O 3.089554 3.177028 -0.740539
N -5.132921 -10.038393 10.250776
H -13.714103 -2.590303 2.842720
H -0.538175 -1.247775 2.469270
H -0.954654 -0.696714 0.644587
H 0.462729 0.525760 -0.789522
H -1.869691 -1.399755 0.042752
H 1.750143 6.942265 -8.932807
H 3.509819 1.007423 -0.614888
13

C -0.574913 4.452399 -3.080449
C 0.423329 1.334293 -1.505399
C 0.497100 0.375200 0.138243
O 1.364763 -2.628024 0.844284
O -3.961191 1.566449 -0.678202
N -3.807745 -6.407236 5.550442
H -0.507956 -0.377624 0.057032
H -0.655451 -0.665579 2.312269
H 1.528677 -2.758913 0.608463
H -0.134883 -0.132358 1.458141
H 2.533226 0.859661 -0.435799
H 1.849530 3.539803 -5.280166
H 1.445513 0.841928 0.011140
13

C -4.800801 -5.060623 10.141759
C 2.219461 -1.399905 1.007718
C -2.051205 1.962849 -2.078180
O 1.222777 -1.691522 2.645525
O 0.695286 1.187211 -1.154323
N 1.443151 0.958993 -3.860716
H 2.373692 0.850742 -1.341514
H 0.699963 3.093383 -6.972214
H 0.182561 1.677032 -0.123075
H -0.152429 -0.106964 -1.144516
H -0.285430 -0.471932 0.417424
H -0.541733 -0.980677 2.196082
H -1.005295 -0.018587 0.266029
13

C 0.000117 0.002567 0.002238
C -0.002007 -0.002584 0.000215
C 0.000375 -0.001362 0.000916
O 0.000562 0.003217 -0.001654
O 0.000637 -0.001320 0.001847
N -0.000445 -0.000544 -0.000463
H -0.000078 -0.000516 -0.000007
H -0.000629 0.000607 -0.001797
H 0.001152 -0.001512 -0.000198
H -0.000508 0.000001 -0.000485
H -0.000044 0.000133 -0.000668
H 0.000653 0.000562 0.001503
H 0.000215 0.000750 -0.001447
13

C 5.432953 0.131189 -2.048576
C -2.186714 1.084273 3.898356
C 0.588197 1.654789 -2.387551
O -1.308078 -1.144022 1.159942
O -1.202031 -1.300063 1.021843
N 2.861263 1.937863 -3.179021
H -2.288303 -0.641794 0.593827
H -0.928382 -0.464739 0.576389
H -1.301523 0.249242 -0.075642
H 0.584161 -0.015124 -1.271717
H 1.595811 0.429815 -0.400500
H 0.411477 0.514295 1.322441
H -2.258831 -2.435725 0.790208
13

C -0.000051 -0.000072 0.000336
C -0.000044 -0.000044 -0.000442
C 0.000665 -0.000154 -0.000336
O -0.000794 -0.000017 -0.001142
O 0.000229 0.000080 0.001825
N 0.000084 -0.000112 -0.000247
H -0.000136 0.000261 -0.000013
H 0.000055 -0.000055 -0.000077
H 0.000147 0.000029 0.000047
H -0.000133 -0.000182 -0.000090
H -0.000013 0.000087 -0.000234
H -0.000017 0.000023 0.000262
H 0.000007 0.000154 0.000112
13

C -1.107327 -0.359786 3.129309
C 1.285892 0.183307 -0.192758
C 0.077674 0.601234 1.514134
O -1.075873 -0.434182 -1.316546
O 2.680957 0.593945 -0.719668
N -1.617308 -0.474451 -2.469613
H 0.419922 -0.396234 -1.358821
H -0.559052 0.152144 -0.870027
H 0.781984 -0.149702 -0.223273
H -0.165309 -0.143638 0.592212
H -1.903578 -0.587707 0.215763
H 0.050169 0.728493 1.485496
H 1.131849 0.286577 0.213794
13

C -0.000206 -0.000088 0.000121
C 0.000307 0.000288 0.000454
C -0.001037 -0.000297 0.001335
O 0.001370 -0.000089 -0.001463
O -0.000204 -0.000023 0.000125
N 0.000185 0.001447 -0.001857
H -0.000188 0.000087 -0.000154
H 0.000007 0.000326 0.000447
H -0.000170 -0.000075 -0.000195
H -0.000061 0.000154 0.000069
H 0.000436 0.000087 -0.000032
H 0.000542 -0.000774 0.000239
H -0.000981 -0.001042 0.000912
13

C 5.618263 4.928852 -1.823738
C -0.465304 0.505479 -0.371471
C 1.806489 1.118762 -1.775776
O -2.035969 -0.394932 1.808478
O 1.486215 -0.647145 -1.502180
N -1.568213 -4.402154 2.367203
H -0.216163 -2.314290 0.371139
H -0.859676 0.183560 0.655011
H -3.729881 -2.158035 0.590277
H -0.224452 -0.259225 0.632506
H -1.532621 0.233637 1.401409
H -0.545723 1.868413 -1.397036
H 2.267034 1.337076 -0.955821
13

C 0.000389 0.000313 0.000303
C 0.000001 -0.000115 -0.000664
C -0.001393 0.000009 0.000484
O 0.000654 -0.000175 -0.000251
O 0.000764 0.000286 -0.000444
N -0.001070 -0.001405 -0.000471
H -0.000155 0.000081 0.000077
H -0.000216 0.000041 -0.000179
H 0.000166 -0.000070 0.000008
H 0.000068 -0.000036 0.000207
H -0.000108 -0.000110 0.000317
H 0.000404 -0.000191 -0.000061
H 0.000497 0.001371 0.000676
13

C -1.017093 -1.402162 -2.850573
C -0.094227 -1.289076 0.447208
C 0.921930 0.257959 -1.803210
O -0.279927 0.444374 0.217433
O -0.193273 -0.674152 1.298595
N 0.583499 3.280477 1.973467
H 0.044862 -0.066098 0.380351
H 0.856753 0.421405 0.586137
H 0.243647 0.500577 1.667784
H -0.226628 0.473060 -0.090294
H -0.029628 0.052180 -0.079444
H -0.974079 -0.673744 -0.195139
H 0.164164 -1.324800 -1.552314
13

C -0.000904 0.000743 0.000174
C 0.002904 0.000597 -0.000234
C 0.000104 -0.002222 -0.003634
O -0.001339 0.001083 0.003118
O -0.000344 0.001307 0.001758
N -0.000926 -0.000086 0.002138
H 0.000290 -0.000663 0.000282
H 0.000530 -0.000289 -0.000018
H -0.000553 -0.000241 -0.000371
H -0.000670 -0.000229 -0.000498
H 0.000810 -0.000470 -0.001091
H 0.000958 0.000574 -0.000206
H -0.000860 -0.000103 -0.001417
13

C -2.207705 -5.001202 -1.639182
C -0.156450 -0.142225 3.234942
C 0.597650 -1.169160 -0.724596
O 0.189268 0.638724 0.607358
O 2.593028 0.565785 -0.269459
N -3.801615 -0.727361 -4.480598
H -0.218042 1.443548 -0.353516
H -0.275859 1.228641 0.722136
H 1.474227 1.835704 0.188586
H 0.052947 0.790744 -0.920646
H -1.840352 -0.070388 0.404791
H 1.450739 0.426069 -0.000238
H 2.142163 0.181122 3.230420
26

C -0.000418 0.000199 0.000301
C 0.000390 0.000139 -0.000359
C 0.000603 0.000270 0.000195
C -0.000161 0.000629 -0.001185
O 0.000743 0.000140 0.000442
O -0.000575 0.000184 0.000428
N -0.001262 -0.000258 0.001502
C -0.000244 0.000151 0.000174
N 0.000218 -0.000321 -0.000116
C -0.000308 0.000678 -0.000169
N 0.000092 -0.001085 -0.000268
N -0.000773 -0.000480 -0.000031
H 0.000002 -0.000232 -0.000055
H 0.000203 0.000194 -0.000275
H 0.000270 -0.000151 0.000146
H 0.000100 0.000116 -0.000227
H -0.000196 -0.000218 0.000360
H 0.000654 -0.000436 0.000179
H 0.000072 -0.000304 0.000069
H 0.000678 0.000007 -0.001517
H 0.000183 0.000073 -0.000060
H -0.000125 -0.000186 0.000143
H 0.000181 0.000531 0.000488
H -0.000385 0.000192 0.000165
H 0.000706 -0.000002 -0.000002
H -0.000649 0.000170 -0.000328
26

C 3.512466 4.063293 -0.219710
C -0.045214 -4.743809 0.259858
C 0.661528 -1.022138 -2.035765
C 0.836169 1.644237 1.126557
O 2.861358 -3.914923 -3.057979
O -5.693870 2.530326 2.939401
N 0.618909 3.697246 -6.188880
C 0.383269 0.912550 2.012712
N -1.257700 1.237638 0.116576
C 0.215466 -2.281985 1.268441
N -5.416274 2.161040 -1.523243
N 4.107049 3.777978 -0.999169
H -0.483413 -0.423965 0.056695
H 0.037441 -1.485997 -0.399748
H -1.424341 0.791607 -0.299905
H -0.344625 0.545650 0.399775
H -0.828621 0.507863 1.052098
H 4.191596 -2.437697 0.858422
H 0.342568 -0.835666 0.226050
H -0.742748 -1.068670 6.345152
H -0.768882 -0.046457 -0.332872
H 0.191010 -0.435908 -2.185377
H 2.399231 -1.013278 -1.114035
H 1.598031 -2.659316 2.178733
H -2.744881 -0.353105 -0.158354
H -2.205522 0.853489 -0.325431
26

C 0.000313 0.000342 -0.000133
C 0.000494 -0.000449 -0.000003
C -0.000499 -0.000527 -0.000063
C 0.000251 0.000057 0.000087
O 0.000216 0.000254 0.000122
O 0.000150 -0.000243 -0.000149
N 0.000301 0.000049 0.000032
C 0.000129 -0.000160 -0.000389
N -0.000184 -0.000020 0.001118
C 0.000004 -0.000194 -0.000628
N 0.000682 -0.000092 -0.000240
N -0.000435 0.000323 0.000041
H 0.000055 0.000504 0.000041
H 0.000192 -0.000213 0.000649
H -0.000576 0.000375 -0.000780
H -0.000687 -0.000232 0.000679
H 0.000176 -0.000008 -0.000282
H -0.000100 0.000266 0.000082
H -0.000097 -0.000050 -0.000206
H -0.000147 -0.000037 0.000017
H -0.000024 0.000020 -0.000257
H 0.000356 0.000190 0.000172
H -0.000552 -0.000246 0.000060
H -0.000258 0.000316 0.000070
H 0.000551 -0.000081 -0.000009
H -0.000309 -0.000145 -0.000028
26

C -0.119127 0.074665 -0.775193
C 0.623726 -2.034347 2.419029
C -0.708733 0.626932 -0.202852
C 0.453045 0.380096 0.228842
O 0.425693 -0.433253 -0.265601
O -0.141841 0.023475 -0.025487
N 0.251250 0.675458 0.653702
C 0.060130 0.797691 0.037706
N -0.065744 -0.894359 -0.074896
C 0.438014 -0.574590 0.076157
N -0.189849 -0.126923 0.314130
N -2.304122 1.175303 -0.373260
H 0.085352 0.184826 0.057011
H -0.027315 -0.098527 0.291362
H -0.825557 1.050126 -1.316215
H 0.368859 0.180391 -0.593198
H 0.185438 -0.149127 -0.205839
H 0.123738 -0.097235 0.174022
H 0.134660 -0.420114 -0.325047
H -0.112562 0.003479 -0.111157
H -0.013863 -0.137884 0.124820
H -0.177388 -0.214495 0.021963
H 0.243931 -0.046552 -0.035730
H -0.030912 0.158843 -0.197025
H 1.622632 -0.285447 0.077971
H -0.299454 0.181567 0.024786
26

C 0.000061 -0.000245 0.000356
C -0.000156 -0.000313 0.000252
C 0.000160 0.000822 -0.000122
C 0.000501 -0.001596 0.001168
O 0.000178 0.001013 0.000361
O 0.001220 0.001423 -0.001166
N -0.000115 -0.000359 -0.000041
C 0.000491 -0.000403 0.000409
N -0.000214 0.000535 -0.000695
C -0.000255 0.000051 -0.000245
N -0.001439 0.000403 -0.000710
N 0.001632 -0.000234 0.000659
H -0.000182 -0.000206 0.000043
H -0.000027 -0.000054 -0.000227
H 0.000076 0.000014 0.000050
H 0.000063 0.000009 -0.000216
H -0.000089 -0.000083 -0.000033
H -0.001256 -0.000219 0.000033
H 0.000548 0.000370 0.000185
H -0.000164 0.000000 -0.000179
H 0.000061 0.000214 0.000247
H -0.000312 -0.000117 -0.000059
H 0.000760 -0.000826 0.000095
H -0.000201 0.000401 0.000167
H -0.001341 0.000154 -0.000125
H -0.000000 -0.000754 -0.000208
26

C -1.501801 1.551697 0.045186
C -0.676655 -0.189276 -1.596428
C -0.919857 -1.411223 0.621319
C -0.665260 -1.081236 -0.219564
O -0.788099 0.202631 -0.015973
O 1.047782 0.735562 -0.637415
N 3.275254 4.110955 0.243446
C 0.260594 -0.082898 3.161605
N -0.353124 0.459362 -0.380062
C 1.050811 0.782694 -0.389790
N 0.856978 -0.043985 1.830895
N 0.699522 0.019328 0.843364
H 0.343098 -0.720860 0.430002
H 0.656392 -0.212536 -0.479026
H -0.182459 0.135411 0.910779
H 0.640603 -0.027229 -0.032205
H 0.065608 0.100971 -0.486997
H -0.818435 0.166493 0.199208
H -2.534480 -1.639212 -0.834419
H 0.179585 -1.709275 0.583071
H 0.145833 -0.400077 -1.574697
H 0.053791 0.009216 -0.467892
H -1.232684 0.563354 -0.741616
H 0.559727 -1.029094 -0.756754
H -0.587576 -0.119678 -0.436674
H 0.424852 -0.171095 0.180637
26

C -0.000030 0.000503 -0.000028
C 0.000589 -0.000097 -0.000429
C -0.000519 -0.000475 0.000776
C 0.000134 -0.000080 0.000024
O -0.000270 -0.000011 -0.000235
O -0.000450 0.000373 -0.000248
N 0.000143 0.000266 -0.000072
C -0.000230 -0.000372 0.000257
N 0.000561 -0.000013 0.000245
C 0.000130 0.000464 0.000364
N -0.000479 0.000135 0.000417
N -0.000431 -0.000314 -0.000148
H -0.000002 -0.000230 -0.000008
H -0.000031 0.000025 -0.000079
H -0.000098 0.000096 0.000102
H -0.000020 -0.000107 -0.000147
H 0.000077 0.000099 -0.000088
H 0.000237 -0.000049 -0.000024
H -0.000047 -0.000272 -0.000181
H 0.000078 0.000066 0.000087
H 0.000073 0.000061 -0.000306
H -0.000012 0.000186 0.000215
H -0.000063 0.000110 -0.000297
H 0.000273 -0.000204 -0.000183
H 0.000266 -0.000029 -0.000114
H 0.000121 -0.000130 0.000100
26

C 4.139478 -2.418120 8.033260
C -2.453368 2.165221 -0.763559
C -0.360615 0.930783 0.345971
C -0.179374 -0.688301 0.370324
O 2.080023 -1.680407 1.069889
O -1.249076 0.347775 -0.918130
N -0.666032 0.278850 -2.194333
C -1.796988 -1.873161 -1.934156
N 1.941489 0.976469 0.087814
C -1.031556 1.434236 0.129467
N -1.478951 -1.866616 -0.999087
N 1.982067 0.265744 0.327190
H -2.977498 2.600519 -4.197538
H -0.908475 -1.077009 -1.610243
H 1.010697 -0.654741 -0.235908
H 0.753577 -0.024161 0.000716
H -0.047178 -0.125872 -0.003499
H 0.843968 -0.303393 -0.066401
H -0.111391 -0.288305 0.218690
H 0.285424 -0.495707 1.895214
H 0.554829 0.222275 0.692082
H 1.281240 0.818108 0.066035
H 1.310294 -0.297865 0.498151
H -0.336661 0.985810 0.312752
H -1.154874 -0.140741 -0.354463
H -1.431048 0.908606 -0.770237
26

C -0.000295 -0.001669 0.000197
C -0.001155 0.000426 0.000336
C 0.000308 -0.000467 -0.000650
C 0.000267 0.001131 -0.001420
O -0.001960 -0.000843 -0.000905
O -0.003194 0.000913 0.001945
N 0.000057 0.002219 -0.000696
C 0.001015 0.001100 -0.000056
N 0.001476 0.000586 0.000552
C -0.000551 -0.000582 -0.000707
N -0.001191 0.002305 0.000786
N -0.001052 0.001147 -0.000372
H -0.000449 0.000040 -0.000023
H 0.000260 -0.000536 0.000125
H 0.000105 -0.000281 0.000331
H 0.000235 0.000130 -0.000282
H -0.000022 0.000025 0.000003
H 0.002407 -0.001649 0.000157
H 0.000366 -0.001045 -0.000320
H 0.000057 -0.000494 0.000896
H 0.000904 -0.000261 0.000380
H 0.000401 -0.000337 -0.000275
H 0.000443 -0.000210 0.000200
H -0.000313 -0.001941 -0.001161
H 0.000241 0.000070 0.000394
H 0.001641 0.000221 0.000564
26

C 1.256192 2.077459 3.763676
C -2.967993 -0.236409 -1.892517
C 0.387707 0.151850 -2.822256
C 0.293207 0.948162 -0.444764
O 1.667850 -1.854961 1.183689
O -4.250002 1.565324 0.079612
N -0.903573 0.701511 -2.476859
C -0.536728 -1.407055 3.415493
N 0.358726 1.440506 0.883396
C 1.689715 1.078266 -0.245015
N -1.808766 -2.497163 -1.121282
N 1.600964 -0.530638 -0.407241
H -0.697764 -0.181123 -2.768543
H -0.006841 -0.745766 -0.683591
H 1.131136 -0.532790 0.301408
H 0.588420 0.253400 1.400666
H -0.110586 -0.068401 1.811550
H 3.558677 -2.108491 0.300135
H 0.121773 -0.302802 -0.169075
H 0.129836 -0.619755 3.174256
H 1.444214 1.216969 -1.372696
H -0.304266 -0.555251 -1.957896
H 0.236120 0.050397 0.248686
H -0.098063 1.418982 0.567379
H -1.437782 0.266110 0.253486
H -1.342172 0.471669 -1.021697
26

C -0.000111 -0.000104 0.000076
C -0.000276 -0.000069 0.000051
C 0.000219 0.000078 0.000054
C -0.000179 -0.000184 -0.000018
O -0.000151 -0.000050 0.000035
O -0.000311 0.000331 -0.000168
N -0.000091 0.000130 -0.000013
C -0.000194 -0.000222 0.000010
N -0.000471 0.000484 -0.000465
C 0.000768 -0.000834 0.000427
N -0.000308 0.000519 0.000281
N 0.000626 -0.000497 0.000324
H -0.000058 -0.000042 0.000103
H -0.000166 0.000056 0.000021
H -0.000024 0.000059 0.000125
H 0.000032 0.000049 0.000043
H -0.000023 0.000017 0.000030
H 0.000425 -0.000183 -0.000120
H 0.000100 -0.000068 0.000056
H 0.000030 0.000124 -0.000035
H 0.000094 0.000038 -0.000197
H 0.000091 0.000067 -0.000041
H 0.000029 0.000060 0.000037
H -0.000072 -0.000098 -0.000252
H -0.000205 0.000307 -0.000295
H 0.000226 0.000032 -0.000068
26

C -1.346047 0.761228 1.754992
C 3.311096 -0.903316 3.303136
C 0.253160 -0.736320 0.327259
C 2.064792 -1.085103 1.212816
O -1.681333 0.893204 -0.127441
O 2.970870 1.522150 -1.704581
N 0.843378 0.720506 0.659655
C 2.258453 2.156660 -7.063224
N -1.892862 -2.696479 -0.542431
C 1.650110 -0.163735 -0.127811
N -9.894655 0.516965 1.060652
N 0.358562 0.260712 0.293328
H 0.469123 -0.025771 -1.275178
H 0.269372 -0.678771 -0.148941
H -2.218966 1.029498 -0.953449
H -0.473903 0.156086 -1.655032
H 0.163726 -0.008992 -0.580069
H -3.023047 -1.118543 0.337246
H -1.293138 0.320876 -0.301109
H 0.262586 -0.817819 -0.422305
H -0.980308 -0.383153 0.900428
H -0.857937 -0.162308 5.793718
H 7.083100 -0.391901 0.987016
H 1.330064 0.119070 -1.814639
H -0.182344 0.508175 -0.437922
H 0.556146 0.207081 0.523891
26

C 0.000063 -0.000728 -0.000018
C -0.000881 0.000197 -0.000672
C 0.000996 0.000076 0.000742
C 0.000099 0.000647 0.000107
O -0.000381 0.000718 -0.000052
O -0.000310 -0.000135 0.000097
N -0.000003 -0.000180 0.000478
C 0.000550 -0.000024 0.000179
N -0.000196 0.000049 -0.000697
C -0.000285 -0.000640 0.000641
N 0.001055 0.000343 0.000011
N -0.000290 0.000324 -0.000014
H -0.000361 -0.000293 -0.000111
H 0.000167 0.000133 -0.000194
H -0.000228 0.000185 -0.000220
H 0.000038 -0.000201 0.000118
H -0.000121 0.000465 0.000165
H -0.000041 -0.000172 -0.000223
H -0.000084 -0.000036 -0.000167
H 0.000237 -0.000016 0.000003
H 0.000030 -0.000032 0.000281
H 0.000238 -0.000121 -0.000137
H -0.000139 0.000595 -0.000032
H -0.000395 -0.000442 -0.000245
H -0.000066 0.000007 0.000220
H 0.000306 -0.000716 -0.000260
26

C -6.912811 2.287852 -10.916818
C -0.956817 -1.804651 0.996505
C 3.601730 4.102127 0.483648
C 0.841150 -0.722328 3.430516
O 0.527926 -0.087445 0.110138
O -0.034087 -1.171355 -0.729959
N -2.928168 -0.016594 2.939065
C 3.881093 4.518504 2.929353
N -1.630303 -3.585541 -2.094736
C -0.192780 2.262897 0.150566
N -5.017374 2.461371 -3.907816
N 3.774643 -6.132956 2.852794
H 1.242330 -1.934483 0.880443
H 2.656019 -0.139028 7.745008
H 0.845334 0.620379 -0.003044
H 0.871030 0.155365 -0.014647
H -2.719068 -1.777878 -0.883432
H 0.246060 0.470128 -0.825930
H 0.616725 0.292935 -0.494107
H 1.856876 -0.594287 -2.169649
H -1.253548 -0.407561 -1.518038
H -1.247244 -0.893443 -0.176562
H 0.472485 0.716143 0.804968
H 3.485744 -0.584163 3.196196
H -2.000933 2.060726 -2.253044
H -0.026011 -0.096714 -0.531419
26

C 0.000128 0.000321 0.000187
C 0.000294 -0.000300 -0.000315
C -0.000668 -0.000161 -0.000115
C -0.000082 0.000246 0.000142
O 0.000290 0.000163 0.000512
O 0.001048 0.000276 0.000226
N 0.000150 -0.000238 0.000051
C -0.000432 -0.000441 0.000205
N 0.000108 -0.000041 -0.000468
C 0.001819 -0.000348 -0.000790
N 0.000284 0.001684 0.000987
N -0.000371 0.000433 0.000385
H -0.000154 0.000031 -0.000092
H -0.000000 0.000228 0.000136
H -0.000230 0.000099 -0.000039
H 0.000232 -0.000123 0.000089
H -0.000348 -0.000037 0.000093
H -0.001197 -0.000414 -0.000748
H -0.000037 -0.000008 0.000040
H -0.000068 0.000100 -0.000073
H 0.000224 0.000090 -0.000048
H -0.000308 -0.000017 -0.000224
H -0.000173 -0.000479 -0.000087
H -0.000156 -0.000681 -0.000278
H -0.000213 -0.000272 0.000162
H -0.000139 -0.000109 0.000062
26

C 1.080723 1.689890 -2.100075
C 2.753198 -0.887070 5.171846
C 3.644746 3.487654 -1.319261
C -0.734790 1.667666 -0.745805
O 1.792907 -2.713703 0.532586
O -1.010719 -1.600123 -1.264375
N -0.509714 1.017314 1.811225
C -0.390117 -0.485568 -0.307968
N -1.588471 0.984672 -1.015218
C 0.866001 0.074656 0.833693
N -4.649860 1.481861 -5.627028
N 0.876392 -1.277553 0.753792
H -0.021580 -1.224032 0.791179
H -0.523739 -0.179917 0.393880
H -1.440181 -0.452911 -3.744886
H -0.522591 0.271176 -0.001169
H -2.828466 -2.432912 -0.410171
H 0.758872 0.241896 0.583185
H -0.009802 -0.762633 0.047291
H -0.159614 0.015919 -0.546843
H -0.063785 0.092157 0.257755
H -0.252935 0.115657 0.352859
H 3.976962 -0.249734 4.467764
H 0.566168 -0.588310 0.639183
H -0.482681 0.061993 0.029490
H -1.126924 1.651956 0.417073
26

C -0.000030 -0.000415 0.000193
C -0.000222 -0.000059 0.000160
C 0.000034 0.000308 0.000175
C 0.000197 0.000002 0.000173
O 0.000119 -0.000038 -0.000515
O -0.000936 0.000052 0.000428
N -0.000149 0.000013 -0.000283
C 0.000154 0.000191 0.000044
N -0.000288 0.000248 -0.000288
C 0.000354 0.000564 0.000662
N 0.000959 -0.000699 -0.000344
N -0.000430 -0.000630 -0.000537
H 0.000126 -0.000087 0.000026
H -0.000043 0.000030 0.000031
H 0.000040 -0.000002 -0.000076
H -0.000170 -0.000120 -0.000078
H -0.000104 -0.000056 -0.000073
H 0.000748 0.000081 -0.000014
H -0.000081 0.000011 0.000023
H 0.000006 -0.000001 0.000033
H -0.000040 -0.000014 0.000023
H 0.000077 0.000013 -0.000095
H -0.000083 0.000454 0.000087
H -0.000459 -0.000014 0.000121
H 0.000167 0.000170 -0.000021
H 0.000053 0.000000 0.000145
26

C -0.440131 1.317239 1.039174
C -1.735971 1.831753 -1.915272
C -1.538298 -1.653363 -1.133803
C 0.608638 1.091925 0.611663
O 1.715451 -2.412961 -1.195346
O -1.459466 -1.440647 -0.711555
N -2.784835 2.886684 -0.463057
C 0.727891 1.382659 2.727614
N -1.007821 -1.200457 1.268668
C 1.110322 -0.108473 -0.860001
N 2.651135 -2.297657 1.309999
N 1.084323 -0.858414 1.094785
H 0.112848 -0.506268 -0.210682
H 0.235194 -0.536319 -0.766119
H 0.711270 -0.261658 1.653768
H 0.998875 -0.468470 -0.294160
H 1.579195 0.875920 0.621371
H 1.070509 0.357815 0.448725
H 0.591442 -2.375042 1.322543
H 1.999826 -0.659945 -0.207775
H -0.715236 -0.432232 -2.268827
H -0.069005 -0.016252 -0.323415
H -1.323918 -0.015194 -0.885194
H -1.471806 3.004989 -0.382933
H -1.266677 0.504332 -0.971765
H -1.383753 1.990038 0.491591
26

C 0.000052 0.000044 -0.000113
C 0.000013 -0.000242 0.000023
C 0.000233 0.000112 0.000279
C 0.000424 0.001330 0.000385
O 0.000759 0.000520 -0.000801
O 0.000004 -0.000763 0.000052
N -0.000049 -0.000101 -0.000340
C -0.000181 -0.000162 0.000083
N -0.000841 -0.000747 0.000404
C 0.000487 0.000266 -0.000612
N 0.001240 -0.000213 0.001231
N 0.000375 0.000128 -0.000282
H 0.000051 0.000035 -0.000089
H 0.000014 -0.000029 0.000068
H -0.000005 0.000182 -0.000062
H -0.000071 0.000039 0.000118
H 0.000146 -0.000022 0.000020
H -0.000076 0.000564 -0.000255
H 0.000044 -0.000112 0.000171
H -0.000266 0.000148 -0.000008
H -0.000176 0.000106 -0.000012
H -0.000077 0.000065 0.000183
H -0.000589 -0.000078 -0.000488
H -0.000709 0.000264 -0.000580
H 0.000007 -0.000133 -0.000101
H -0.000808 -0.001201 0.000722
26

C -2.265959 2.959454 1.732001
C 0.389617 -1.948086 1.446851
C -0.013956 1.543547 0.361975
C -0.952424 1.535914 0.699445
O -1.919645 -2.329098 2.997429
O 1.303020 -1.118139 1.393764
N 4.283970 1.643426 -6.415556
C 1.050086 -1.446989 1.477995
N 0.215965 1.539621 0.562857
C 0.049798 1.873879 2.753745
N -1.625000 -5.062150 -10.700708
N 0.451503 -1.751776 -2.833862
H 1.005874 0.098243 -2.015532
H 0.454163 -1.589243 -0.594735
H -0.791571 0.769634 -1.376962
H 0.748413 -0.168787 -0.506194
H -0.910428 -0.385559 -0.096958
H -0.948146 0.900948 -1.155236
H -1.938632 -1.952660 6.228549
H -1.351659 0.392963 -0.529871
H -0.117665 0.006347 -0.280254
H -0.309517 0.172030 -0.189993
H -1.173059 0.706552 2.002996
H 2.134235 3.433324 7.696649
H 0.218646 0.124749 0.254667
H 2.012371 0.051853 -2.913061
