  26
 
 C          0.6833810000        0.5931310000       -0.5564930000
 C         -0.5827050000        0.7374000000       -1.4108380000
 C         -1.7842150000        0.0739050000       -0.7333070000
 C         -1.5252120000       -1.4458630000       -0.6553980000
 O         -1.7932760000       -1.9594610000       -1.9158050000
 O         -2.3559820000       -2.0140290000        0.3039840000
 N         -2.0166650000        0.6398670000        0.5860990000
 C          0.5579600000       -0.6231010000        0.3650280000
 N         -0.1171670000       -1.6999670000       -0.3301090000
 C          0.2867720000       -3.0016290000       -0.3156520000
 N          1.6201640000       -3.2446080000       -0.0482900000
 N         -0.5815840000       -3.9220020000       -0.5425870000
 H          1.5522450000        0.4925200000       -1.2092200000
 H          0.8238520000        1.4769560000        0.0641480000
 H         -0.4489700000        0.2451640000       -2.3742980000
 H         -0.8020420000        1.7897240000       -1.5897900000
 H         -2.6604750000        0.1668600000       -1.3962560000
 H         -2.1595740000       -2.9685770000        0.2907190000
 H         -2.4876750000        1.5331640000        0.4937530000
 H         -2.6232800000        0.0143930000        1.1060480000
 H          1.5323790000       -0.9536180000        0.7215100000
 H         -0.0518670000       -0.3444960000        1.2305700000
 H          1.9282950000       -4.1819140000       -0.2555400000
 H          2.2836420000       -2.5305710000       -0.2997250000
 H         -0.1921360000       -4.8572850000       -0.5750260000
 H         -1.6144640000       -2.9177620000       -1.8574260000
