 xtb: 6.6.0 (8843059)
          07302512163D

 13 12  0     0  0            999 V2000
   -0.9398    0.5535    1.0546 C   0  0  0  0  0  0  0  0  0  0  0  0
    0.5771    0.8200    0.9843 C   0  0  0  0  0  0  0  0  0  0  0  0
    1.2487   -0.5144    0.7102 C   0  0  0  0  0  0  0  0  0  0  0  0
    1.6900   -1.2464    1.5532 O   0  0  0  0  0  0  0  0  0  0  0  0
    1.2445   -0.8338   -0.5887 O   0  0  0  0  0  0  0  0  0  0  0  0
    0.9707    1.7955   -0.0133 N   0  0  0  0  0  0  0  0  0  0  0  0
   -1.3005    0.1922    0.0929 H   0  0  0  0  0  0  0  0  0  0  0  0
   -1.1580   -0.1907    1.8161 H   0  0  0  0  0  0  0  0  0  0  0  0
   -1.4641    1.4737    1.3045 H   0  0  0  0  0  0  0  0  0  0  0  0
    0.9264    1.1702    1.9621 H   0  0  0  0  0  0  0  0  0  0  0  0
    1.6701   -1.6956   -0.7208 H   0  0  0  0  0  0  0  0  0  0  0  0
    0.7579    1.4498   -0.9429 H   0  0  0  0  0  0  0  0  0  0  0  0
    0.4639    2.6623    0.1277 H   0  0  0  0  0  0  0  0  0  0  0  0
  1  2  1  0  0  0  0
  2  3  1  0  0  0  0
  3  4  2  0  0  0  0
  3  5  1  0  0  0  0
  2  6  1  0  0  0  0
  1  7  1  0  0  0  0
  1  8  1  0  0  0  0
  1  9  1  0  0  0  0
  2 10  1  0  0  0  0
  5 11  1  0  0  0  0
  6 12  1  0  0  0  0
  6 13  1  0  0  0  0
M  END
