26

C -0.684436 2.071290 -0.350387
C -1.929943 1.193635 -0.233676
C -1.603172 -0.200419 0.309885
C -0.450189 -0.864036 -0.510949
O -0.873645 -1.011430 -1.831105
O -0.141771 -2.106960 -0.019073
N -1.320176 -0.148891 1.730725
C 0.366303 1.310482 -1.157310
N 0.714434 0.062522 -0.498705
C 1.627526 0.013312 0.516968
N 2.261904 1.184606 0.884389
N 1.870093 -1.102756 1.106660
H -0.933811 3.007064 -0.852614
H -0.294967 2.308679 0.641770
H -2.374892 1.073850 -1.221978
H -2.660455 1.655697 0.430629
H -2.475782 -0.849162 0.178781
H 0.685357 -2.018513 0.538855
H -1.160792 -1.090225 2.074575
H -0.473455 0.383338 1.905801
H -0.058801 1.032774 -2.125012
H 1.262476 1.904329 -1.347545
H 3.118491 1.063315 1.401369
H 2.261839 1.973255 0.261420
H 2.563987 -1.048839 1.840924
H -0.479947 -1.829607 -2.160856
