 xtb: 6.6.0 (8843059)
          07302512343D

 26 26  0     0  0            999 V2000
   -0.6844    2.0713   -0.3504 C   0  0  0  0  0  0  0  0  0  0  0  0
   -1.9299    1.1936   -0.2337 C   0  0  0  0  0  0  0  0  0  0  0  0
   -1.6032   -0.2004    0.3099 C   0  0  0  0  0  0  0  0  0  0  0  0
   -0.4502   -0.8640   -0.5109 C   0  0  0  0  0  0  0  0  0  0  0  0
   -0.8737   -1.0114   -1.8311 O   0  0  0  0  0  0  0  0  0  0  0  0
   -0.1418   -2.1070   -0.0191 O   0  0  0  0  0  0  0  0  0  0  0  0
   -1.3202   -0.1489    1.7307 N   0  0  0  0  0  0  0  0  0  0  0  0
    0.3663    1.3105   -1.1573 C   0  0  0  0  0  0  0  0  0  0  0  0
    0.7144    0.0625   -0.4987 N   0  0  0  0  0  0  0  0  0  0  0  0
    1.6275    0.0133    0.5170 C   0  0  0  0  0  0  0  0  0  0  0  0
    2.2619    1.1846    0.8844 N   0  0  0  0  0  0  0  0  0  0  0  0
    1.8701   -1.1028    1.1067 N   0  0  0  0  0  0  0  0  0  0  0  0
   -0.9338    3.0071   -0.8526 H   0  0  0  0  0  0  0  0  0  0  0  0
   -0.2950    2.3087    0.6418 H   0  0  0  0  0  0  0  0  0  0  0  0
   -2.3749    1.0739   -1.2220 H   0  0  0  0  0  0  0  0  0  0  0  0
   -2.6604    1.6557    0.4306 H   0  0  0  0  0  0  0  0  0  0  0  0
   -2.4758   -0.8491    0.1788 H   0  0  0  0  0  0  0  0  0  0  0  0
    0.6853   -2.0185    0.5389 H   0  0  0  0  0  0  0  0  0  0  0  0
   -1.1608   -1.0902    2.0746 H   0  0  0  0  0  0  0  0  0  0  0  0
   -0.4734    0.3833    1.9058 H   0  0  0  0  0  0  0  0  0  0  0  0
   -0.0588    1.0328   -2.1250 H   0  0  0  0  0  0  0  0  0  0  0  0
    1.2625    1.9043   -1.3476 H   0  0  0  0  0  0  0  0  0  0  0  0
    3.1185    1.0633    1.4014 H   0  0  0  0  0  0  0  0  0  0  0  0
    2.2619    1.9732    0.2614 H   0  0  0  0  0  0  0  0  0  0  0  0
    2.5640   -1.0488    1.8409 H   0  0  0  0  0  0  0  0  0  0  0  0
   -0.4800   -1.8296   -2.1609 H   0  0  0  0  0  0  0  0  0  0  0  0
  1  2  1  0  0  0  0
  2  3  1  0  0  0  0
  3  4  1  0  0  0  0
  4  5  1  0  0  0  0
  4  6  1  0  0  0  0
  3  7  1  0  0  0  0
  1  8  1  0  0  0  0
  4  9  1  0  0  0  0
  8  9  1  0  0  0  0
  9 10  1  0  0  0  0
 10 11  1  0  0  0  0
 10 12  2  0  0  0  0
  1 13  1  0  0  0  0
  1 14  1  0  0  0  0
  2 15  1  0  0  0  0
  2 16  1  0  0  0  0
  3 17  1  0  0  0  0
  6 18  1  0  0  0  0
  7 19  1  0  0  0  0
  7 20  1  0  0  0  0
  8 21  1  0  0  0  0
  8 22  1  0  0  0  0
 11 23  1  0  0  0  0
 11 24  1  0  0  0  0
 12 25  1  0  0  0  0
  5 26  1  0  0  0  0
M  END
