13

C -1.112170 -1.492723 -0.108107
C -0.705684 -0.139593 0.476279
C 0.773311 0.092820 0.114542
O 1.681063 -0.412142 0.710064
O 0.931853 0.880975 -0.942497
N -1.490610 0.932309 -0.133646
H -0.445264 -2.266006 0.262432
H -2.132166 -1.740766 0.179437
H -1.049932 -1.463550 -1.193998
H -0.786819 -0.181248 1.571923
H 0.036600 1.186059 -1.215139
H -2.455745 0.649526 -0.258259
H -1.481553 1.763481 0.448058
