 xtb: 6.6.0 (8843059)
          07302512343D

 13 12  0     0  0            999 V2000
   -1.1122   -1.4927   -0.1081 C   0  0  0  0  0  0  0  0  0  0  0  0
   -0.7057   -0.1396    0.4763 C   0  0  0  0  0  0  0  0  0  0  0  0
    0.7733    0.0928    0.1145 C   0  0  0  0  0  0  0  0  0  0  0  0
    1.6811   -0.4121    0.7101 O   0  0  0  0  0  0  0  0  0  0  0  0
    0.9319    0.8810   -0.9425 O   0  0  0  0  0  0  0  0  0  0  0  0
   -1.4906    0.9323   -0.1336 N   0  0  0  0  0  0  0  0  0  0  0  0
   -0.4453   -2.2660    0.2624 H   0  0  0  0  0  0  0  0  0  0  0  0
   -2.1322   -1.7408    0.1794 H   0  0  0  0  0  0  0  0  0  0  0  0
   -1.0499   -1.4635   -1.1940 H   0  0  0  0  0  0  0  0  0  0  0  0
   -0.7868   -0.1812    1.5719 H   0  0  0  0  0  0  0  0  0  0  0  0
    0.0366    1.1861   -1.2151 H   0  0  0  0  0  0  0  0  0  0  0  0
   -2.4557    0.6495   -0.2583 H   0  0  0  0  0  0  0  0  0  0  0  0
   -1.4815    1.7635    0.4481 H   0  0  0  0  0  0  0  0  0  0  0  0
  1  2  1  0  0  0  0
  2  3  1  0  0  0  0
  3  4  2  0  0  0  0
  3  5  1  0  0  0  0
  2  6  1  0  0  0  0
  1  7  1  0  0  0  0
  1  8  1  0  0  0  0
  1  9  1  0  0  0  0
  2 10  1  0  0  0  0
  5 11  1  0  0  0  0
  6 12  1  0  0  0  0
  6 13  1  0  0  0  0
M  END
