13
 xtb: 6.6.0 (8843059)
C           -1.21074253995156       -1.32491224915213       -0.50446293316183
C           -0.71973386996953       -0.18623886043372        0.38786099463397
C            0.71833210007204        0.14797971261288        0.01698320022606
O            1.06769568802545        1.18290659321530       -0.49476006120455
O            1.57413088240010       -0.82048657472379        0.35421312292234
N           -1.60568625829278        0.97177806878058        0.31009552777454
H           -2.22058225850474       -1.58634384592636       -0.28327460959725
H           -1.16877059475076       -0.98363456367412       -1.57553222100924
H           -0.56367675692515       -2.18902154768294       -0.42785943359925
H           -0.71447165403566       -0.56709497847420        1.42344946868920
H            2.47458920049304       -0.56797488815756        0.13399724336366
H           -2.27935301846424        0.88865774517805       -0.40833127702869
H           -0.98824907620240        1.80733438369990        0.09243798118110
