 xtb: 6.6.0 (8843059)
          07302512343D

 13 12  0     0  0            999 V2000
   -1.2013   -1.2277   -0.6964 C   0  0  0  0  0  0  0  0  0  0  0  0
   -0.7223   -0.2342    0.3810 C   0  0  0  0  0  0  0  0  0  0  0  0
    0.7055    0.1379    0.0278 C   0  0  0  0  0  0  0  0  0  0  0  0
    1.0215    1.0602   -0.6736 O   0  0  0  0  0  0  0  0  0  0  0  0
    1.5909   -0.7178    0.5448 O   0  0  0  0  0  0  0  0  0  0  0  0
   -1.5116    0.9769    0.4743 N   0  0  0  0  0  0  0  0  0  0  0  0
   -2.2250   -1.5304   -0.4861 H   0  0  0  0  0  0  0  0  0  0  0  0
   -1.1666   -0.7586   -1.6784 H   0  0  0  0  0  0  0  0  0  0  0  0
   -0.5702   -2.1126   -0.7046 H   0  0  0  0  0  0  0  0  0  0  0  0
   -0.7244   -0.7337    1.3565 H   0  0  0  0  0  0  0  0  0  0  0  0
    2.4925   -0.4756    0.2776 H   0  0  0  0  0  0  0  0  0  0  0  0
   -1.2525    1.6096   -0.2766 H   0  0  0  0  0  0  0  0  0  0  0  0
   -2.5001    0.7677    0.3926 H   0  0  0  0  0  0  0  0  0  0  0  0
  1  2  1  0  0  0  0
  2  3  1  0  0  0  0
  3  4  2  0  0  0  0
  3  5  1  0  0  0  0
  2  6  1  0  0  0  0
  1  7  1  0  0  0  0
  1  8  1  0  0  0  0
  1  9  1  0  0  0  0
  2 10  1  0  0  0  0
  5 11  1  0  0  0  0
  6 12  1  0  0  0  0
  6 13  1  0  0  0  0
M  END
