26

C -1.036120 2.104775 -0.354110
C -2.079007 1.070856 -0.758441
C -1.849918 -0.240521 -0.010709
C -0.396307 -0.757916 -0.195737
O -0.225077 -1.166072 -1.517243
O -0.250512 -1.809987 0.687736
N -2.211035 -0.098294 1.386034
C 0.350338 1.540394 -0.625400
N 0.569767 0.311651 0.135602
C 1.882645 -0.090579 0.307806
N 2.749534 0.890711 0.735618
N 2.225409 -1.301009 0.075765
H -1.166253 3.020589 -0.932597
H -1.142256 2.351210 0.703094
H -2.005655 0.877697 -1.829024
H -3.082992 1.424727 -0.526706
H -2.490094 -1.018382 -0.438425
H 0.674739 -2.120395 0.600076
H -1.539570 0.506929 1.848312
H -2.141375 -1.005246 1.835115
H 0.438404 1.316501 -1.698373
H 1.122408 2.264315 -0.364192
H 3.639022 0.568129 1.082083
H 2.362911 1.676298 1.231718
H 3.188361 -1.514632 0.311059
H 0.644378 -1.591485 -1.573310
