 xtb: 6.6.0 (8843059)
          07302512343D

 26 26  0     0  0            999 V2000
   -1.0361    2.1048   -0.3541 C   0  0  0  0  0  0  0  0  0  0  0  0
   -2.0790    1.0709   -0.7584 C   0  0  0  0  0  0  0  0  0  0  0  0
   -1.8499   -0.2405   -0.0107 C   0  0  0  0  0  0  0  0  0  0  0  0
   -0.3963   -0.7579   -0.1957 C   0  0  0  0  0  0  0  0  0  0  0  0
   -0.2251   -1.1661   -1.5172 O   0  0  0  0  0  0  0  0  0  0  0  0
   -0.2505   -1.8100    0.6877 O   0  0  0  0  0  0  0  0  0  0  0  0
   -2.2110   -0.0983    1.3860 N   0  0  0  0  0  0  0  0  0  0  0  0
    0.3503    1.5404   -0.6254 C   0  0  0  0  0  0  0  0  0  0  0  0
    0.5698    0.3116    0.1356 N   0  0  0  0  0  0  0  0  0  0  0  0
    1.8826   -0.0906    0.3078 C   0  0  0  0  0  0  0  0  0  0  0  0
    2.7495    0.8907    0.7356 N   0  0  0  0  0  0  0  0  0  0  0  0
    2.2254   -1.3010    0.0758 N   0  0  0  0  0  0  0  0  0  0  0  0
   -1.1662    3.0206   -0.9326 H   0  0  0  0  0  0  0  0  0  0  0  0
   -1.1422    2.3512    0.7031 H   0  0  0  0  0  0  0  0  0  0  0  0
   -2.0057    0.8777   -1.8290 H   0  0  0  0  0  0  0  0  0  0  0  0
   -3.0830    1.4247   -0.5267 H   0  0  0  0  0  0  0  0  0  0  0  0
   -2.4901   -1.0184   -0.4384 H   0  0  0  0  0  0  0  0  0  0  0  0
    0.6747   -2.1204    0.6001 H   0  0  0  0  0  0  0  0  0  0  0  0
   -1.5396    0.5069    1.8483 H   0  0  0  0  0  0  0  0  0  0  0  0
   -2.1414   -1.0052    1.8351 H   0  0  0  0  0  0  0  0  0  0  0  0
    0.4384    1.3165   -1.6984 H   0  0  0  0  0  0  0  0  0  0  0  0
    1.1224    2.2643   -0.3642 H   0  0  0  0  0  0  0  0  0  0  0  0
    3.6390    0.5681    1.0821 H   0  0  0  0  0  0  0  0  0  0  0  0
    2.3629    1.6763    1.2317 H   0  0  0  0  0  0  0  0  0  0  0  0
    3.1884   -1.5146    0.3111 H   0  0  0  0  0  0  0  0  0  0  0  0
    0.6444   -1.5915   -1.5733 H   0  0  0  0  0  0  0  0  0  0  0  0
  1  2  1  0  0  0  0
  2  3  1  0  0  0  0
  3  4  1  0  0  0  0
  4  5  1  0  0  0  0
  4  6  1  0  0  0  0
  3  7  1  0  0  0  0
  1  8  1  0  0  0  0
  4  9  1  0  0  0  0
  8  9  1  0  0  0  0
  9 10  1  0  0  0  0
 10 11  1  0  0  0  0
 10 12  2  0  0  0  0
  1 13  1  0  0  0  0
  1 14  1  0  0  0  0
  2 15  1  0  0  0  0
  2 16  1  0  0  0  0
  3 17  1  0  0  0  0
  6 18  1  0  0  0  0
  7 19  1  0  0  0  0
  7 20  1  0  0  0  0
  8 21  1  0  0  0  0
  8 22  1  0  0  0  0
 11 23  1  0  0  0  0
 11 24  1  0  0  0  0
 12 25  1  0  0  0  0
  5 26  1  0  0  0  0
M  END
