 xtb: 6.6.0 (8843059)
          07302512343D

 26 26  0     0  0            999 V2000
   -0.9021    2.2415   -0.1514 C   0  0  0  0  0  0  0  0  0  0  0  0
   -2.0407    1.2774    0.1463 C   0  0  0  0  0  0  0  0  0  0  0  0
   -1.7348   -0.0724   -0.4906 C   0  0  0  0  0  0  0  0  0  0  0  0
   -0.3683   -0.6327   -0.0089 C   0  0  0  0  0  0  0  0  0  0  0  0
   -0.1121   -1.7285   -0.8111 O   0  0  0  0  0  0  0  0  0  0  0  0
   -0.4690   -0.9945    1.3366 O   0  0  0  0  0  0  0  0  0  0  0  0
   -2.8114   -1.0045   -0.2353 N   0  0  0  0  0  0  0  0  0  0  0  0
    0.3882    1.6701    0.4181 C   0  0  0  0  0  0  0  0  0  0  0  0
    0.6938    0.3757   -0.1840 N   0  0  0  0  0  0  0  0  0  0  0  0
    1.9897   -0.0894   -0.0644 C   0  0  0  0  0  0  0  0  0  0  0  0
    2.9793    0.8234   -0.3583 N   0  0  0  0  0  0  0  0  0  0  0  0
    2.2100   -1.2970    0.2987 N   0  0  0  0  0  0  0  0  0  0  0  0
   -0.8025    2.3734   -1.2303 H   0  0  0  0  0  0  0  0  0  0  0  0
   -1.0915    3.2148    0.3031 H   0  0  0  0  0  0  0  0  0  0  0  0
   -2.9875    1.6428   -0.2499 H   0  0  0  0  0  0  0  0  0  0  0  0
   -2.1444    1.1425    1.2243 H   0  0  0  0  0  0  0  0  0  0  0  0
   -1.6418    0.0439   -1.5762 H   0  0  0  0  0  0  0  0  0  0  0  0
    0.3628   -1.4341    1.5698 H   0  0  0  0  0  0  0  0  0  0  0  0
   -2.5980   -1.8848   -0.6937 H   0  0  0  0  0  0  0  0  0  0  0  0
   -2.8496   -1.1901    0.7632 H   0  0  0  0  0  0  0  0  0  0  0  0
    1.2220    2.3499    0.2432 H   0  0  0  0  0  0  0  0  0  0  0  0
    0.2720    1.5438    1.5045 H   0  0  0  0  0  0  0  0  0  0  0  0
    3.8979    0.4350   -0.5043 H   0  0  0  0  0  0  0  0  0  0  0  0
    2.7431    1.5827   -0.9754 H   0  0  0  0  0  0  0  0  0  0  0  0
    3.1870   -1.5679    0.2742 H   0  0  0  0  0  0  0  0  0  0  0  0
    0.7629   -2.0750   -0.5400 H   0  0  0  0  0  0  0  0  0  0  0  0
  1  2  1  0  0  0  0
  2  3  1  0  0  0  0
  3  4  1  0  0  0  0
  4  5  1  0  0  0  0
  4  6  1  0  0  0  0
  3  7  1  0  0  0  0
  1  8  1  0  0  0  0
  4  9  1  0  0  0  0
  8  9  1  0  0  0  0
  9 10  1  0  0  0  0
 10 11  1  0  0  0  0
 10 12  2  0  0  0  0
  1 13  1  0  0  0  0
  1 14  1  0  0  0  0
  2 15  1  0  0  0  0
  2 16  1  0  0  0  0
  3 17  1  0  0  0  0
  6 18  1  0  0  0  0
  7 19  1  0  0  0  0
  7 20  1  0  0  0  0
  8 21  1  0  0  0  0
  8 22  1  0  0  0  0
 11 23  1  0  0  0  0
 11 24  1  0  0  0  0
 12 25  1  0  0  0  0
  5 26  1  0  0  0  0
M  END
