 xtb: 6.6.0 (8843059)
          07302512343D

 13 12  0     0  0            999 V2000
   -1.3998   -0.5946   -1.1965 C   0  0  0  0  0  0  0  0  0  0  0  0
   -0.6635   -0.4862    0.1374 C   0  0  0  0  0  0  0  0  0  0  0  0
    0.7749    0.0277   -0.0792 C   0  0  0  0  0  0  0  0  0  0  0  0
    1.4499   -0.2818   -1.0181 O   0  0  0  0  0  0  0  0  0  0  0  0
    1.1975    0.8269    0.8951 O   0  0  0  0  0  0  0  0  0  0  0  0
   -1.3027    0.3725    1.1325 N   0  0  0  0  0  0  0  0  0  0  0  0
   -1.5626    0.3967   -1.6166 H   0  0  0  0  0  0  0  0  0  0  0  0
   -0.7958   -1.1660   -1.8951 H   0  0  0  0  0  0  0  0  0  0  0  0
   -2.3617   -1.0872   -1.0690 H   0  0  0  0  0  0  0  0  0  0  0  0
   -0.5561   -1.4862    0.5765 H   0  0  0  0  0  0  0  0  0  0  0  0
    0.4548    0.9427    1.5286 H   0  0  0  0  0  0  0  0  0  0  0  0
   -1.6560    1.2145    0.6859 H   0  0  0  0  0  0  0  0  0  0  0  0
   -2.0895   -0.0933    1.5683 H   0  0  0  0  0  0  0  0  0  0  0  0
  1  2  1  0  0  0  0
  2  3  1  0  0  0  0
  3  4  2  0  0  0  0
  3  5  1  0  0  0  0
  2  6  1  0  0  0  0
  1  7  1  0  0  0  0
  1  8  1  0  0  0  0
  1  9  1  0  0  0  0
  2 10  1  0  0  0  0
  5 11  1  0  0  0  0
  6 12  1  0  0  0  0
  6 13  1  0  0  0  0
M  END
