26

C -0.845471 2.289520 -0.152238
C -1.810788 1.273390 0.466403
C -1.773352 -0.044244 -0.305688
C -0.373640 -0.689205 -0.103052
O -0.136606 -1.568884 -1.154004
O -0.376501 -1.342908 1.118585
N -2.848175 -0.909897 0.124830
C 0.325068 1.559497 -0.822560
N 0.655018 0.363573 -0.075031
C 1.936479 -0.035807 0.184061
N 2.899683 0.952080 0.244363
N 2.174363 -1.285679 0.355328
H -1.355613 2.891455 -0.904748
H -0.478076 2.962897 0.623635
H -2.831403 1.652201 0.467547
H -1.525323 1.057455 1.497203
H -1.906981 0.133473 -1.377028
H 0.517795 -1.721443 1.220359
H -2.810505 -1.773846 -0.406680
H -2.699180 -1.155998 1.099301
H 0.042919 1.261958 -1.840665
H 1.197988 2.205705 -0.904681
H 3.778956 0.661339 0.643025
H 2.607503 1.873308 0.525973
H 3.133227 -1.492785 0.610531
H 0.727407 -1.981607 -0.981499
